7
Coordinates from ORCA-job NEB-CI_MEP E -153.531198654272
  C      -0.736788      0.430512     -0.002644
  C       0.572853     -0.305311      0.008207
  H       0.522638     -1.132083      0.735500
  H       1.401946      0.367897      0.255116
  H       0.739668     -0.771457     -0.976645
  O      -0.869752      1.613520      0.230365
  H      -1.630566     -0.203078     -0.249899
7
Coordinates from ORCA-job NEB-CI_MEP E -153.499682766649
  C      -0.730121      0.353475     -0.031713
  C       0.554077     -0.400451     -0.090648
  H       0.768173     -0.934483      0.853981
  H       1.011833      0.611671      0.188449
  H       0.741280     -1.110417     -0.943063
  O      -0.659488      1.420996      0.562650
  H      -1.685755      0.059208     -0.539657
7
Coordinates from ORCA-job NEB-CI_MEP E -153.455008967825
  C      -0.693299      0.316046     -0.065774
  C       0.541039     -0.449585     -0.137303
  H       0.812565     -0.891280      0.838518
  H       0.847765      0.743298      0.305052
  H       0.713885     -1.196618     -0.961801
  O      -0.544743      1.386227      0.561401
  H      -1.677211      0.091912     -0.540093
7
Coordinates from ORCA-job NEB-CI_MEP E -153.434520027972
  C      -0.663466      0.280480     -0.096988
  C       0.509041     -0.511061     -0.171092
  H       0.838417     -0.860857      0.827755
  H       0.744647      0.863996      0.389759
  H       0.695324     -1.244367     -0.974514
  O      -0.455135      1.365347      0.566047
  H      -1.668828      0.106462     -0.540966
7
Coordinates from ORCA-job NEB-CI_MEP E -153.460090234535
  C      -0.638886      0.238454     -0.132146
  C       0.450261     -0.600882     -0.190287
  H       0.893211     -0.816115      0.802678
  H       0.645756      1.015873      0.486660
  H       0.667327     -1.304519     -0.988161
  O      -0.364522      1.337247      0.584994
  H      -1.653146      0.129942     -0.563737
7
Coordinates from ORCA-job NEB-CI_MEP E -153.492684796405
  C      -0.601985      0.207833     -0.152287
  C       0.388807     -0.711588     -0.191530
  H       1.027373     -0.751611      0.710266
  H       0.596303      1.204820      0.647703
  H       0.567733     -1.435299     -0.987703
  O      -0.382504      1.312493      0.610632
  H      -1.595728      0.173352     -0.637081
7
Coordinates from ORCA-job NEB-CI_MEP E -153.513745795335
  C      -0.501121      0.213658     -0.179755
  C       0.407302     -0.768437     -0.204272
  H       1.327981     -0.725688      0.383096
  H       0.390243      1.377958      1.049838
  H       0.240689     -1.647114     -0.824306
  O      -0.441716      1.372603      0.539742
  H      -1.423378      0.177021     -0.764343
