7
Coordinates from ORCA-job NEB-TS_with_guess_MEP E -153.531198654272
  C      -0.736788      0.430512     -0.002644
  C       0.572853     -0.305311      0.008207
  H       0.522638     -1.132083      0.735500
  H       1.401946      0.367897      0.255116
  H       0.739668     -0.771457     -0.976645
  O      -0.869752      1.613520      0.230365
  H      -1.630566     -0.203078     -0.249899
7
Coordinates from ORCA-job NEB-TS_with_guess_MEP E -153.497043001606
  C      -0.731176      0.352043     -0.030637
  C       0.552404     -0.406352     -0.091332
  H       0.779376     -0.920386      0.863362
  H       1.003128      0.617250      0.177242
  H       0.738418     -1.126021     -0.939958
  O      -0.658926      1.408864      0.582727
  H      -1.683224      0.074602     -0.561404
7
Coordinates from ORCA-job NEB-TS_with_guess_MEP E -153.452461191009
  C      -0.691057      0.315053     -0.067590
  C       0.540738     -0.451901     -0.135604
  H       0.808569     -0.890791      0.841944
  H       0.845559      0.746991      0.309288
  H       0.710875     -1.196081     -0.963125
  O      -0.541045      1.387229      0.557922
  H      -1.673639      0.089500     -0.542835
7
Coordinates from ORCA-job NEB-TS_with_guess_MEP E -153.434512474274
  C      -0.662879      0.280099     -0.097434
  C       0.508137     -0.513434     -0.168279
  H       0.836210     -0.860831      0.832132
  H       0.741157      0.863755      0.386507
  H       0.696345     -1.242798     -0.973424
  O      -0.452275      1.365706      0.566144
  H      -1.666696      0.107502     -0.545646
7
Coordinates from ORCA-job NEB-TS_with_guess_MEP E -153.462105880760
  C      -0.637421      0.236719     -0.133324
  C       0.444601     -0.608526     -0.187397
  H       0.900696     -0.813654      0.800921
  H       0.643779      1.024875      0.493108
  H       0.663771     -1.311483     -0.986123
  O      -0.366786      1.337657      0.585531
  H      -1.648640      0.134412     -0.572716
7
Coordinates from ORCA-job NEB-TS_with_guess_MEP E -153.493181129378
  C      -0.602033      0.209468     -0.153233
  C       0.389569     -0.709523     -0.191861
  H       1.030058     -0.745393      0.709876
  H       0.596013      1.198241      0.656208
  H       0.560815     -1.439596     -0.983993
  O      -0.383327      1.315861      0.606823
  H      -1.591095      0.170943     -0.643821
7
Coordinates from ORCA-job NEB-TS_with_guess_MEP E -153.513745715132
  C      -0.500372      0.213917     -0.180654
  C       0.407076     -0.768337     -0.203407
  H       1.326096     -0.726292      0.385514
  H       0.388664      1.376948      1.050190
  H       0.241327     -1.646430     -0.823526
  O      -0.441820      1.372211      0.538682
  H      -1.420971      0.177982     -0.766800
