7
Coordinates from ORCA-job NEB-TS_MEP E -153.531198654272
  C      -0.736788      0.430512     -0.002644
  C       0.572853     -0.305311      0.008207
  H       0.522638     -1.132083      0.735500
  H       1.401946      0.367897      0.255116
  H       0.739668     -0.771457     -0.976645
  O      -0.869752      1.613520      0.230365
  H      -1.630566     -0.203078     -0.249899
7
Coordinates from ORCA-job NEB-TS_MEP E -153.500678708877
  C      -0.731061      0.353558     -0.029545
  C       0.552881     -0.402519     -0.086925
  H       0.766891     -0.938339      0.857798
  H       1.017042      0.610489      0.180134
  H       0.742891     -1.106998     -0.941670
  O      -0.664440      1.423688      0.563746
  H      -1.684204      0.060122     -0.543538
7
Coordinates from ORCA-job NEB-TS_MEP E -153.457297578306
  C      -0.693674      0.316125     -0.063914
  C       0.542248     -0.451009     -0.133269
  H       0.809515     -0.899243      0.842428
  H       0.851523      0.744072      0.299780
  H       0.715980     -1.192518     -0.962059
  O      -0.549241      1.390126      0.556862
  H      -1.676352      0.092447     -0.539829
7
Coordinates from ORCA-job NEB-TS_MEP E -153.434519231762
  C      -0.662304      0.279419     -0.096123
  C       0.509510     -0.514922     -0.167814
  H       0.838170     -0.868414      0.831414
  H       0.744142      0.870816      0.387513
  H       0.695131     -1.243395     -0.975029
  O      -0.457055      1.368291      0.562091
  H      -1.667593      0.108205     -0.542052
7
Coordinates from ORCA-job NEB-TS_MEP E -153.458457537182
  C      -0.637786      0.236334     -0.130045
  C       0.450876     -0.602726     -0.184795
  H       0.890966     -0.825698      0.808692
  H       0.643189      1.019330      0.478592
  H       0.668800     -1.299477     -0.988797
  O      -0.363394      1.341494      0.581386
  H      -1.652652      0.130743     -0.565033
7
Coordinates from ORCA-job NEB-TS_MEP E -153.493079403986
  C      -0.601892      0.207132     -0.147862
  C       0.388149     -0.715470     -0.184468
  H       1.026509     -0.766545      0.715629
  H       0.595171      1.217805      0.633861
  H       0.566496     -1.431705     -0.986507
  O      -0.384370      1.315152      0.612005
  H      -1.590062      0.173630     -0.642658
7
Coordinates from ORCA-job NEB-TS_MEP E -153.513745795335
  C      -0.500219      0.214211     -0.181568
  C       0.405829     -0.770148     -0.200630
  H       1.325391     -0.727489      0.388483
  H       0.391462      1.380801      1.045621
  H       0.238337     -1.650656     -0.817805
  O      -0.439449      1.375603      0.533826
  H      -1.421350      0.177679     -0.767927
