! PBE def2-TZVP D3BJ RIJCOSX def2/J ScanTS TIGHTSCF SLOWCONV Freq

%pal
    nprocs 4
end

%maxcore 750

%geom
    scan B 0 5 = 3., 1.0, 30 end
end

*xyz -1 1
    C    -4.012150000000      1.254880000000     -0.039060000000
    Br   -2.249570000000      1.185170000000     -0.277250000000
    H    -4.243710000000      2.126130000000      0.576650000000
    H    -4.329930000000      0.338390000000      0.461790000000
    H    -4.490100000000      1.340740000000     -1.016800000000
    Cl   -7.213690000000      1.381520000000      0.393620000000
*

