26
	Energy:      23.9793475
O          3.84648        1.41463        0.65446
O         -4.32252       -0.55142       -0.15644
O          4.36951       -0.39802       -0.53219
N          1.89922       -1.03393       -1.33482
N         -3.04050        1.88864       -0.70789
C          1.24265       -0.08614        0.85165
C          2.04664        0.12842       -0.44939
C         -0.24019       -0.20798        0.59172
C         -0.95938        0.87945        0.06828
C         -0.91482       -1.40620        0.86917
C         -2.33583        0.77460       -0.18299
C         -2.28336       -1.51981        0.61569
C          3.50280        0.35772       -0.11222
C         -3.00061       -0.43544        0.08893
H          1.39660        0.76794        1.54764
H          1.62883       -1.00249        1.35118
H          1.67988        1.03665       -0.97584
H         -0.44895        1.81157       -0.14136
H         -0.38120       -2.25731        1.27358
H         -2.78660       -2.45446        0.82881
H          0.89543       -1.15211       -1.60179
H          5.30579       -0.26160       -0.32752
H         -2.55130        2.77490       -0.90100
H         -4.05131        1.83885       -0.90037
H         -4.80889       -1.37083        0.01226
H          2.42422       -0.86301       -2.22350
