3
Coordinates from ORCA-job NEB-CI_MEP E -111.0000
O       -3.50000       -0.58504       -0.01395
H       -2.24247       -0.61827        0.01848
H       -3.48920       -1.24911        0.63429
3
Coordinates from ORCA-job NEB-CI_MEP E -222.0000
O       -3.40000       -0.58504       -0.01395
H       -2.24247       -0.61827        0.01848
H       -3.48920       -1.24911        0.63429
3
Coordinates from ORCA-job NEB-CI_MEP E -333.0000
O       -3.30000       -0.58504       -0.01395
H       -2.24247       -0.61827        0.01848
H       -3.48920       -1.24911        0.63429
3
Coordinates from ORCA-job NEB-CI_MEP E -444.0000
O       -3.21035       -0.58504       -0.01395
H       -2.24247       -0.61827        0.01848
H       -3.48920       -1.24911        0.63429