16
 energy: -26.631158138193 gnorm: 0.000302588793 xtb: 6.4.1 (afa7bdf)
C        -2.01864369523779   -1.07858610270215    0.00053451448240
C        -0.69970565492186   -1.46721693871541   -0.00013696011029
C         0.33346611304424   -0.52821122590793   -0.00056002502653
C         0.01842674367469    0.90266588979505   -0.00030745475432
C        -1.38000733526854    1.23722254740028   -0.00006397889114
C        -2.35517556804409    0.28715943743009    0.00061284965263
O         0.90695121924844    1.78830581428885   -0.00054914221504
O         1.56863785906121   -1.03483142817741   -0.00166305529078
C         2.73103705975187   -0.22539179054018    0.00196136253609
H        -1.61245036637943    2.29115493434210   -0.00003056394953
H        -3.39397595300657    0.57780293530043    0.00120078729624
H        -0.42160625937107   -2.50941373191715   -0.00011549360535
H         3.56099068226185   -0.92854577437323    0.00837826216624
H         2.77207156351199    0.40998148673990   -0.88438927323243
H         2.76319475412616    0.41632677491405    0.88444330579253
H        -2.79872866661818   -1.82218801494009    0.00131532941635
