8
 energy: -14.472049160179 gnorm: 0.000274887985 xtb: 6.5.1 (b24c23e)
H           -0.00813025084775       -0.04983898415291       -2.29171819619337
O           -0.00813018940847       -0.47157996015022       -1.41146524202876
O           -0.00813011776839        1.60598230775427       -0.61530409990002
C           -0.00813006420818        0.40814859677029       -0.42010126331150
C           -0.00813014406915       -0.24528318786608        0.92593124411130
H            0.87087587648871       -0.87882174136284        1.01216655262942
H           -0.00813023221037        0.51021475432056        1.70418863161984
H           -0.88713614903339       -0.87882178531205        1.01216641693610
