7
 energy: -14.273537492595 gnorm: 0.000432945524 xtb: 6.5.1 (b24c23e)
O           -0.00812140724811       -0.46104618751914       -1.44583354037422
O           -0.00812333529359        1.59060084049885       -0.58860354390599
C           -0.00814496669161        0.34481053410213       -0.48992188410211
C           -0.00813388039954       -0.25769353584734        0.93467007861559
H            0.87561142767571       -0.87959178494078        1.04806169674175
H           -0.00812972086410        0.54251116289698        1.66840646929053
H           -0.89187811717876       -0.87959102919070        1.04807072373445
